KETAMINE-20251106-A001
     RDKit          3D

 35 36  0  0  0  0  0  0  0  0999 V2000
   -0.9988    3.1570    0.6093 C   0  0  0  0  0  0  0  0  0  0  0  0
   -0.7626    2.3569   -0.6663 C   0  0  0  0  0  0  0  0  0  0  0  0
   -0.3467    0.9872   -0.3443 N   0  0  0  0  0  0  0  0  0  0  0  0
    1.0754    0.7012   -0.0607 C   0  0  0  0  0  0  0  0  0  0  0  0
    1.2736    0.0564    1.3287 C   0  0  0  0  0  0  0  0  0  0  0  0
    2.7242   -0.4163    1.4978 C   0  0  0  0  0  0  0  0  0  0  0  0
    3.1438   -1.4578    0.4296 C   0  0  0  0  0  0  0  0  0  0  0  0
    2.2149   -1.5227   -0.7994 C   0  0  0  0  0  0  0  0  0  0  0  0
    1.6795   -0.1607   -1.1423 C   0  0  0  0  0  0  0  0  0  0  0  0
    1.7687    0.2629   -2.2845 O   0  0  0  0  0  0  0  0  0  0  0  0
   -1.3585   -0.0352   -0.2597 C   0  0  0  0  0  0  0  0  0  0  0  0
   -1.9482   -0.3283    0.9806 C   0  0  0  0  0  0  0  0  0  0  0  0
   -2.9445   -1.3018    1.0785 C   0  0  0  0  0  0  0  0  0  0  0  0
   -3.3774   -1.9761   -0.0643 C   0  0  0  0  0  0  0  0  0  0  0  0
   -2.8257   -1.6681   -1.3106 C   0  0  0  0  0  0  0  0  0  0  0  0
   -3.2756   -2.3121   -2.4168 F   0  0  0  0  0  0  0  0  0  0  0  0
   -1.8251   -0.6912   -1.4173 C   0  0  0  0  0  0  0  0  0  0  0  0
   -1.2062   -0.2765   -3.0104 Cl  0  0  0  0  0  0  0  0  0  0  0  0
   -1.8147    2.6964    1.2049 H   0  0  0  0  0  0  0  0  0  0  0  0
   -1.2907    4.1960    0.3488 H   0  0  0  0  0  0  0  0  0  0  0  0
   -0.0723    3.1883    1.2207 H   0  0  0  0  0  0  0  0  0  0  0  0
   -1.6971    2.3454   -1.2695 H   0  0  0  0  0  0  0  0  0  0  0  0
    0.0176    2.8580   -1.2794 H   0  0  0  0  0  0  0  0  0  0  0  0
    1.6511    1.6543   -0.0555 H   0  0  0  0  0  0  0  0  0  0  0  0
    0.6146   -0.8270    1.4587 H   0  0  0  0  0  0  0  0  0  0  0  0
    1.0261    0.7955    2.1210 H   0  0  0  0  0  0  0  0  0  0  0  0
    2.8508   -0.8535    2.5120 H   0  0  0  0  0  0  0  0  0  0  0  0
    3.3969    0.4674    1.4343 H   0  0  0  0  0  0  0  0  0  0  0  0
    3.1801   -2.4671    0.8944 H   0  0  0  0  0  0  0  0  0  0  0  0
    4.1756   -1.2211    0.0891 H   0  0  0  0  0  0  0  0  0  0  0  0
    2.7653   -1.9568   -1.6625 H   0  0  0  0  0  0  0  0  0  0  0  0
    1.3537   -2.1893   -0.5765 H   0  0  0  0  0  0  0  0  0  0  0  0
   -1.6316    0.1976    1.8723 H   0  0  0  0  0  0  0  0  0  0  0  0
   -3.3846   -1.5303    2.0405 H   0  0  0  0  0  0  0  0  0  0  0  0
   -4.1513   -2.7287    0.0146 H   0  0  0  0  0  0  0  0  0  0  0  0
  1  2  1  0
  2  3  1  0
  3  4  1  0
  4  5  1  0
  5  6  1  0
  6  7  1  0
  7  8  1  0
  8  9  1  0
  9 10  2  0
  3 11  1  0
 11 12  2  0
 12 13  1  0
 13 14  2  0
 14 15  1  0
 15 16  1  0
 15 17  2  0
 17 18  1  0
  9  4  1  0
 17 11  1  0
  1 19  1  0
  1 20  1  0
  1 21  1  0
  2 22  1  0
  2 23  1  0
  4 24  1  0
  5 25  1  0
  5 26  1  0
  6 27  1  0
  6 28  1  0
  7 29  1  0
  7 30  1  0
  8 31  1  0
  8 32  1  0
 12 33  1  0
 13 34  1  0
 14 35  1  0
M  END
>  <COMPOUND_ID>  (1) 
KETAMINE-20251106-A001

>  <COMPOUND_NAME>  (1) 
Ketamine Analog A001

>  <SMILES>  (1) 
CCN(C1CCCCC1=O)c2cccc(F)c2Cl

>  <PARENT_COMPOUND>  (1) 
Ketamine

>  <CONFIDENCE_SCORE>  (1) 
90

>  <SIMILARITY_SCORE>  (1) 
88

>  <SAFETY_SCORE>  (1) 
85

>  <EFFICACY_SCORE>  (1) 
87

>  <DRUGLIKENESS_SCORE>  (1) 
92

>  <PATENT_STATUS>  (1) 
patent-free

>  <PATENT_NUMBERS>  (1) 
[]

>  <THERAPEUTIC_POTENTIAL>  (1) 
Novel NMDA receptor antagonist with improved safety profile

>  <KEY_DIFFERENCES>  (1) 
Modified aryl substitution pattern (2-Cl, 4-F)

>  <MECHANISM_OF_ACTION>  (1) 
Non-competitive NMDA receptor antagonist

>  <MOLECULAR_WEIGHT>  (1) 
267.73

>  <LOGP>  (1) 
2.45

>  <H_BOND_DONORS>  (1) 
0

>  <H_BOND_ACCEPTORS>  (1) 
2

>  <TPSA>  (1) 
20.31

>  <MARKET_POTENTIAL>  (1) 
$65M

>  <DISCOVERY_METHOD>  (1) 
ai-generated-rdkit

>  <DISCOVERED_BY>  (1) 
autonomous-research-engine

>  <APPROVAL_STATUS>  (1) 
pending

>  <CREATED_AT>  (1) 
2025-11-06T10:30:00Z

$$$$
