
     RDKit          3D

 32 33  0  0  0  0  0  0  0  0999 V2000
    1.5273    2.3466   -0.4184 C   0  0  0  0  0  0  0  0  0  0  0  0
    0.2269    1.7691   -0.1479 N   0  0  0  0  0  0  0  0  0  0  0  0
    0.1130    0.2853    0.0325 C   0  0  0  0  0  0  0  0  0  0  0  0
   -1.4154   -0.0465    0.1461 C   0  0  0  0  0  0  0  0  0  0  0  0
   -2.3409    0.8071   -0.5165 C   0  0  0  0  0  0  0  0  0  0  0  0
   -3.7231    0.5988   -0.4776 C   0  0  0  0  0  0  0  0  0  0  0  0
   -4.2333   -0.4893    0.2104 C   0  0  0  0  0  0  0  0  0  0  0  0
   -3.3559   -1.3674    0.8321 C   0  0  0  0  0  0  0  0  0  0  0  0
   -3.8782   -2.4353    1.4572 F   0  0  0  0  0  0  0  0  0  0  0  0
   -1.9638   -1.1723    0.7986 C   0  0  0  0  0  0  0  0  0  0  0  0
   -1.0163   -2.4178    1.5290 Cl  0  0  0  0  0  0  0  0  0  0  0  0
    0.6545   -0.5390   -1.1633 C   0  0  0  0  0  0  0  0  0  0  0  0
    2.1722   -0.7140   -1.2790 C   0  0  0  0  0  0  0  0  0  0  0  0
    2.9330   -0.6963    0.0425 C   0  0  0  0  0  0  0  0  0  0  0  0
    2.0568   -1.0164    1.2369 C   0  0  0  0  0  0  0  0  0  0  0  0
    0.8953   -0.0436    1.3367 C   0  0  0  0  0  0  0  0  0  0  0  0
    0.6015    0.4760    2.4188 O   0  0  0  0  0  0  0  0  0  0  0  0
    2.2449    2.1537    0.3820 H   0  0  0  0  0  0  0  0  0  0  0  0
    1.4186    3.4347   -0.4849 H   0  0  0  0  0  0  0  0  0  0  0  0
    1.9295    2.0254   -1.3801 H   0  0  0  0  0  0  0  0  0  0  0  0
   -0.1273    2.1855    0.7212 H   0  0  0  0  0  0  0  0  0  0  0  0
   -1.9852    1.6664   -1.0866 H   0  0  0  0  0  0  0  0  0  0  0  0
   -4.3913    1.2880   -0.9883 H   0  0  0  0  0  0  0  0  0  0  0  0
   -5.3019   -0.6729    0.2547 H   0  0  0  0  0  0  0  0  0  0  0  0
    0.2370   -1.5549   -1.1120 H   0  0  0  0  0  0  0  0  0  0  0  0
    0.2703   -0.1336   -2.1096 H   0  0  0  0  0  0  0  0  0  0  0  0
    2.3615   -1.6719   -1.7817 H   0  0  0  0  0  0  0  0  0  0  0  0
    2.5965    0.0396   -1.9514 H   0  0  0  0  0  0  0  0  0  0  0  0
    3.7649   -1.4090   -0.0079 H   0  0  0  0  0  0  0  0  0  0  0  0
    3.3967    0.2860    0.1818 H   0  0  0  0  0  0  0  0  0  0  0  0
    1.6828   -2.0401    1.1693 H   0  0  0  0  0  0  0  0  0  0  0  0
    2.6493   -0.9422    2.1556 H   0  0  0  0  0  0  0  0  0  0  0  0
  1  2  1  0
  2  3  1  0
  3  4  1  0
  4  5  2  0
  5  6  1  0
  6  7  2  0
  7  8  1  0
  8  9  1  0
  8 10  2  0
 10 11  1  0
  3 12  1  0
 12 13  1  0
 13 14  1  0
 14 15  1  0
 15 16  1  0
 16 17  2  0
 16  3  1  0
 10  4  1  0
  1 18  1  0
  1 19  1  0
  1 20  1  0
  2 21  1  0
  5 22  1  0
  6 23  1  0
  7 24  1  0
 12 25  1  0
 12 26  1  0
 13 27  1  0
 13 28  1  0
 14 29  1  0
 14 30  1  0
 15 31  1  0
 15 32  1  0
M  END
>  <COMPOUND_NAME>  (1) 
KETAMINE-20251106-A001

>  <PARENT_COMPOUND>  (1) 
Ketamine

>  <SMILES>  (1) 
CNC1(c2cccc(F)c2Cl)CCCCC1=O

>  <CONFIDENCE_SCORE>  (1) 
90

>  <SIMILARITY_SCORE>  (1) 
88

>  <SAFETY_SCORE>  (1) 
90

>  <EFFICACY_SCORE>  (1) 
88

>  <MARKET_VALUE>  (1) 
$65M

>  <PATENT_STATUS>  (1) 
patent-free

>  <THERAPEUTIC_POTENTIAL>  (1) 
Enhanced NMDA receptor antagonism for treatment-resistant depression with improved safety profile

>  <KEY_DIFFERENCES>  (1) 
Fluorinated derivative with stronger binding affinity and reduced dissociative effects

>  <molecular_weight>  (1) 
255.72

>  <exact_mass>  (1) 
255.08

>  <clogp>  (1) 
3.04

>  <molar_refractivity>  (1) 
65.62

>  <hbd>  (1) 
1

>  <hba>  (1) 
2

>  <tpsa>  (1) 
29.1

>  <rotatable_bonds>  (1) 
3

>  <num_rings>  (1) 
2

>  <num_aromatic_rings>  (1) 
1

>  <num_aliphatic_rings>  (1) 
1

>  <num_atoms>  (1) 
32

>  <num_heavy_atoms>  (1) 
17

>  <num_heteroatoms>  (1) 
4

>  <formal_charge>  (1) 
0

>  <max_positive_charge>  (1) 
0.157

>  <max_negative_charge>  (1) 
-0.304

>  <basic_nitrogen_count>  (1) 
1

>  <lipinski_violations>  (1) 
0

>  <drug_likeness_score>  (1) 
100

$$$$
